%NProcShared=4
%Mem=4GB
%OldChk=O2_O2_239.chk
%Chk=O2_O2_240.chk

#p CCSD(T)/cc-pVTZ Guess=Read SCF=XQC 

O2_O2_240

-2 3
O              0.676190          0.000000          0.000000
O             -0.676190          0.000000          0.000000
O              7.011781          0.000000          0.000000
O              5.659401          0.000000          0.000000

