%NProcShared=4
%Mem=4GB
%OldChk=O2_O2_148.chk
%Chk=O2_O2_149.chk

#p CCSD(T)/cc-pVTZ Guess=Read SCF=XQC 

O2_O2_149

-2 3
O              0.676190          0.000000          0.000000
O             -0.676190          0.000000          0.000000
O              5.723350          0.000000          0.000000
O              4.370970          0.000000          0.000000

