%NProcShared=4
%Mem=4GB
%OldChk=O2_O2_17.chk
%Chk=O2_O2_18.chk

#p CCSD(T)/cc-pVTZ Guess=Read SCF=XQC 

O2_O2_18

-2 3
O              0.676190          0.000000          0.000000
O             -0.676190          0.000000          0.000000
O              3.868575          0.000000          0.000000
O              2.516195          0.000000          0.000000

