%NProcShared=4
%Mem=4GB
%OldChk=O2_O2_278.chk
%Chk=O2_O2_279.chk

#p CCSD(T)/cc-pVTZ Guess=Read SCF=XQC 

O2_O2_279

-2 3
O              0.676190          0.000000          0.000000
O             -0.676190          0.000000          0.000000
O              7.563965          0.000000          0.000000
O              6.211585          0.000000          0.000000

