%NProcShared=4
%Mem=4GB
%OldChk=O2_O2_290.chk
%Chk=O2_O2_291.chk

#p CCSD(T)/cc-pVTZ Guess=Read SCF=XQC 

O2_O2_291

-2 3
O              0.676190          0.000000          0.000000
O             -0.676190          0.000000          0.000000
O              7.733868          0.000000          0.000000
O              6.381488          0.000000          0.000000

