%NProcShared=4
%Mem=4GB
%OldChk=O2_O2_281.chk
%Chk=O2_O2_282.chk

#p CCSD(T)/cc-pVTZ Guess=Read SCF=XQC 

O2_O2_282

-2 3
O              0.676190          0.000000          0.000000
O             -0.676190          0.000000          0.000000
O              7.606441          0.000000          0.000000
O              6.254061          0.000000          0.000000

