%NProcShared=4
%Mem=4GB
%OldChk=O2_O2_174.chk
%Chk=O2_O2_175.chk

#p CCSD(T)/cc-pVTZ Guess=Read SCF=XQC 

O2_O2_175

-2 3
O              0.676190          0.000000          0.000000
O             -0.676190          0.000000          0.000000
O              6.091473          0.000000          0.000000
O              4.739093          0.000000          0.000000

