%NProcShared=4
%Mem=4GB
%OldChk=O2_O2_40.chk
%Chk=O2_O2_41.chk

#p CCSD(T)/cc-pVTZ Guess=Read SCF=XQC 

O2_O2_41

-2 3
O              0.676190          0.000000          0.000000
O             -0.676190          0.000000          0.000000
O              4.194223          0.000000          0.000000
O              2.841843          0.000000          0.000000

