%NProcShared=4
%Mem=4GB
%OldChk=O2_O2_27.chk
%Chk=O2_O2_28.chk

#p CCSD(T)/cc-pVTZ Guess=Read SCF=XQC 

O2_O2_28

-2 3
O              0.676190          0.000000          0.000000
O             -0.676190          0.000000          0.000000
O              4.010161          0.000000          0.000000
O              2.657781          0.000000          0.000000

