%NProcShared=4
%Mem=4GB
%OldChk=O2_O2_247.chk
%Chk=O2_O2_248.chk

#p CCSD(T)/cc-pVTZ Guess=Read SCF=XQC 

O2_O2_248

-2 3
O              0.676190          0.000000          0.000000
O             -0.676190          0.000000          0.000000
O              7.125049          0.000000          0.000000
O              5.772669          0.000000          0.000000

