%NProcShared=4
%Mem=4GB
%OldChk=O2_O2_251.chk
%Chk=O2_O2_252.chk

#p CCSD(T)/cc-pVTZ Guess=Read SCF=XQC 

O2_O2_252

-2 3
O              0.676190          0.000000          0.000000
O             -0.676190          0.000000          0.000000
O              7.181684          0.000000          0.000000
O              5.829304          0.000000          0.000000

