%NProcShared=4
%Mem=4GB
%OldChk=O2_O2_137.chk
%Chk=O2_O2_138.chk

#p CCSD(T)/cc-pVTZ Guess=Read SCF=XQC 

O2_O2_138

-2 3
O              0.676190          0.000000          0.000000
O             -0.676190          0.000000          0.000000
O              5.567605          0.000000          0.000000
O              4.215225          0.000000          0.000000

