%NProcShared=4
%Mem=4GB
%OldChk=O2_O2_165.chk
%Chk=O2_O2_166.chk

#p CCSD(T)/cc-pVTZ Guess=Read SCF=XQC 

O2_O2_166

-2 3
O              0.676190          0.000000          0.000000
O             -0.676190          0.000000          0.000000
O              5.964046          0.000000          0.000000
O              4.611666          0.000000          0.000000

