%NProcShared=4
%Mem=4GB
%OldChk=O2_O2_178.chk
%Chk=O2_O2_179.chk

#p CCSD(T)/cc-pVTZ Guess=Read SCF=XQC 

O2_O2_179

-2 3
O              0.676190          0.000000          0.000000
O             -0.676190          0.000000          0.000000
O              6.148107          0.000000          0.000000
O              4.795727          0.000000          0.000000

