%NProcShared=4
%Mem=4GB
%OldChk=O2_O2_236.chk
%Chk=O2_O2_237.chk

#p CCSD(T)/cc-pVTZ Guess=Read SCF=XQC 

O2_O2_237

-2 3
O              0.676190          0.000000          0.000000
O             -0.676190          0.000000          0.000000
O              6.969305          0.000000          0.000000
O              5.616925          0.000000          0.000000

