%NProcShared=4
%Mem=4GB
%OldChk=O2_O2_196.chk
%Chk=O2_O2_197.chk

#p CCSD(T)/cc-pVTZ Guess=Read SCF=XQC 

O2_O2_197

-2 3
O              0.676190          0.000000          0.000000
O             -0.676190          0.000000          0.000000
O              6.402962          0.000000          0.000000
O              5.050582          0.000000          0.000000

