%NProcShared=4
%Mem=4GB
%OldChk=O2_O2_105.chk
%Chk=O2_O2_106.chk

#p CCSD(T)/cc-pVTZ Guess=Read SCF=XQC 

O2_O2_106

-2 3
O              0.676190          0.000000          0.000000
O             -0.676190          0.000000          0.000000
O              5.114531          0.000000          0.000000
O              3.762151          0.000000          0.000000

