%NProcShared=4
%Mem=4GB
%OldChk=O2_O2_163.chk
%Chk=O2_O2_164.chk

#p CCSD(T)/cc-pVTZ Guess=Read SCF=XQC 

O2_O2_164

-2 3
O              0.676190          0.000000          0.000000
O             -0.676190          0.000000          0.000000
O              5.935728          0.000000          0.000000
O              4.583348          0.000000          0.000000

