%NProcShared=4
%Mem=4GB
%OldChk=O2_O2_202.chk
%Chk=O2_O2_203.chk

#p CCSD(T)/cc-pVTZ Guess=Read SCF=XQC 

O2_O2_203

-2 3
O              0.676190          0.000000          0.000000
O             -0.676190          0.000000          0.000000
O              6.487913          0.000000          0.000000
O              5.135533          0.000000          0.000000

