%NProcShared=4
%Mem=4GB
%OldChk=O2_O2_224.chk
%Chk=O2_O2_225.chk

#p CCSD(T)/cc-pVTZ Guess=Read SCF=XQC 

O2_O2_225

-2 3
O              0.676190          0.000000          0.000000
O             -0.676190          0.000000          0.000000
O              6.799402          0.000000          0.000000
O              5.447022          0.000000          0.000000

