%NProcShared=4
%Mem=4GB
%OldChk=O2_O2_220.chk
%Chk=O2_O2_221.chk

#p CCSD(T)/cc-pVTZ Guess=Read SCF=XQC 

O2_O2_221

-2 3
O              0.676190          0.000000          0.000000
O             -0.676190          0.000000          0.000000
O              6.742768          0.000000          0.000000
O              5.390388          0.000000          0.000000

