%NProcShared=4
%Mem=4GB
%OldChk=O2_O2_259.chk
%Chk=O2_O2_260.chk

#p CCSD(T)/cc-pVTZ Guess=Read SCF=XQC 

O2_O2_260

-2 3
O              0.676190          0.000000          0.000000
O             -0.676190          0.000000          0.000000
O              7.294952          0.000000          0.000000
O              5.942572          0.000000          0.000000

