%NProcShared=4
%Mem=4GB
%OldChk=O2_O2_179.chk
%Chk=O2_O2_180.chk

#p CCSD(T)/cc-pVTZ Guess=Read SCF=XQC 

O2_O2_180

-2 3
O              0.676190          0.000000          0.000000
O             -0.676190          0.000000          0.000000
O              6.162266          0.000000          0.000000
O              4.809886          0.000000          0.000000

