%NProcShared=4
%Mem=4GB
%OldChk=O2_O2_136.chk
%Chk=O2_O2_137.chk

#p CCSD(T)/cc-pVTZ Guess=Read SCF=XQC 

O2_O2_137

-2 3
O              0.676190          0.000000          0.000000
O             -0.676190          0.000000          0.000000
O              5.553447          0.000000          0.000000
O              4.201067          0.000000          0.000000

