%NProcShared=4
%Mem=4GB
%OldChk=O2_O2_216.chk
%Chk=O2_O2_217.chk

#p CCSD(T)/cc-pVTZ Guess=Read SCF=XQC 

O2_O2_217

-2 3
O              0.676190          0.000000          0.000000
O             -0.676190          0.000000          0.000000
O              6.686133          0.000000          0.000000
O              5.333753          0.000000          0.000000

