%NProcShared=4
%Mem=4GB
%OldChk=O2_O2_182.chk
%Chk=O2_O2_183.chk

#p CCSD(T)/cc-pVTZ Guess=Read SCF=XQC 

O2_O2_183

-2 3
O              0.676190          0.000000          0.000000
O             -0.676190          0.000000          0.000000
O              6.204741          0.000000          0.000000
O              4.852361          0.000000          0.000000

