%NProcShared=4
%Mem=4GB
%OldChk=O2_O2_158.chk
%Chk=O2_O2_159.chk

#p CCSD(T)/cc-pVTZ Guess=Read SCF=XQC 

O2_O2_159

-2 3
O              0.676190          0.000000          0.000000
O             -0.676190          0.000000          0.000000
O              5.864936          0.000000          0.000000
O              4.512556          0.000000          0.000000

