%NProcShared=4
%Mem=4GB
%OldChk=O2_O2_232.chk
%Chk=O2_O2_233.chk

#p CCSD(T)/cc-pVTZ Guess=Read SCF=XQC 

O2_O2_233

-2 3
O              0.676190          0.000000          0.000000
O             -0.676190          0.000000          0.000000
O              6.912671          0.000000          0.000000
O              5.560291          0.000000          0.000000

