%NProcShared=4
%Mem=4GB
%OldChk=O2_O2_71.chk
%Chk=O2_O2_72.chk

#p CCSD(T)/cc-pVTZ Guess=Read SCF=XQC 

O2_O2_72

-2 3
O              0.676190          0.000000          0.000000
O             -0.676190          0.000000          0.000000
O              4.633139          0.000000          0.000000
O              3.280759          0.000000          0.000000

