%NProcShared=4
%Mem=4GB
%OldChk=O2_O2_86.chk
%Chk=O2_O2_87.chk

#p CCSD(T)/cc-pVTZ Guess=Read SCF=XQC 

O2_O2_87

-2 3
O              0.676190          0.000000          0.000000
O             -0.676190          0.000000          0.000000
O              4.845518          0.000000          0.000000
O              3.493138          0.000000          0.000000

