%NProcShared=4
%Mem=4GB
%OldChk=O2_O2_228.chk
%Chk=O2_O2_229.chk

#p CCSD(T)/cc-pVTZ Guess=Read SCF=XQC 

O2_O2_229

-2 3
O              0.676190          0.000000          0.000000
O             -0.676190          0.000000          0.000000
O              6.856036          0.000000          0.000000
O              5.503656          0.000000          0.000000

