%NProcShared=4
%Mem=4GB
%OldChk=O2_O2_188.chk
%Chk=O2_O2_189.chk

#p CCSD(T)/cc-pVTZ Guess=Read SCF=XQC 

O2_O2_189

-2 3
O              0.676190          0.000000          0.000000
O             -0.676190          0.000000          0.000000
O              6.289693          0.000000          0.000000
O              4.937313          0.000000          0.000000

