%NProcShared=4
%Mem=4GB
%OldChk=O2_O2_145.chk
%Chk=O2_O2_146.chk

#p CCSD(T)/cc-pVTZ Guess=Read SCF=XQC 

O2_O2_146

-2 3
O              0.676190          0.000000          0.000000
O             -0.676190          0.000000          0.000000
O              5.680874          0.000000          0.000000
O              4.328494          0.000000          0.000000

