%NProcShared=4
%Mem=4GB
%OldChk=O2_O2_79.chk
%Chk=O2_O2_80.chk

#p CCSD(T)/cc-pVTZ Guess=Read SCF=XQC 

O2_O2_80

-2 3
O              0.676190          0.000000          0.000000
O             -0.676190          0.000000          0.000000
O              4.746408          0.000000          0.000000
O              3.394028          0.000000          0.000000

