%NProcShared=4
%Mem=4GB
%OldChk=O2_O2_128.chk
%Chk=O2_O2_129.chk

#p CCSD(T)/cc-pVTZ Guess=Read SCF=XQC 

O2_O2_129

-2 3
O              0.676190          0.000000          0.000000
O             -0.676190          0.000000          0.000000
O              5.440178          0.000000          0.000000
O              4.087798          0.000000          0.000000

