%NProcShared=4
%Mem=4GB
%OldChk=O2_O2_114.chk
%Chk=O2_O2_115.chk

#p CCSD(T)/cc-pVTZ Guess=Read SCF=XQC 

O2_O2_115

-2 3
O              0.676190          0.000000          0.000000
O             -0.676190          0.000000          0.000000
O              5.241958          0.000000          0.000000
O              3.889578          0.000000          0.000000

