%NProcShared=4
%Mem=4GB
%OldChk=O2_O2_172.chk
%Chk=O2_O2_173.chk

#p CCSD(T)/cc-pVTZ Guess=Read SCF=XQC 

O2_O2_173

-2 3
O              0.676190          0.000000          0.000000
O             -0.676190          0.000000          0.000000
O              6.063156          0.000000          0.000000
O              4.710776          0.000000          0.000000

