%NProcShared=4
%Mem=4GB
%OldChk=O2_O2_36.chk
%Chk=O2_O2_37.chk

#p CCSD(T)/cc-pVTZ Guess=Read SCF=XQC 

O2_O2_37

-2 3
O              0.676190          0.000000          0.000000
O             -0.676190          0.000000          0.000000
O              4.137589          0.000000          0.000000
O              2.785209          0.000000          0.000000

