%NProcShared=4
%Mem=4GB
%OldChk=O2_O2_204.chk
%Chk=O2_O2_205.chk

#p CCSD(T)/cc-pVTZ Guess=Read SCF=XQC 

O2_O2_205

-2 3
O              0.676190          0.000000          0.000000
O             -0.676190          0.000000          0.000000
O              6.516230          0.000000          0.000000
O              5.163850          0.000000          0.000000

