%NProcShared=4
%Mem=4GB
%OldChk=O2_O2_238.chk
%Chk=O2_O2_239.chk

#p CCSD(T)/cc-pVTZ Guess=Read SCF=XQC 

O2_O2_239

-2 3
O              0.676190          0.000000          0.000000
O             -0.676190          0.000000          0.000000
O              6.997622          0.000000          0.000000
O              5.645242          0.000000          0.000000

