%NProcShared=4
%Mem=4GB
%OldChk=O2_O2_130.chk
%Chk=O2_O2_131.chk

#p CCSD(T)/cc-pVTZ Guess=Read SCF=XQC 

O2_O2_131

-2 3
O              0.676190          0.000000          0.000000
O             -0.676190          0.000000          0.000000
O              5.468495          0.000000          0.000000
O              4.116115          0.000000          0.000000

