%NProcShared=4
%Mem=4GB
%OldChk=O2_O2_83.chk
%Chk=O2_O2_84.chk

#p CCSD(T)/cc-pVTZ Guess=Read SCF=XQC 

O2_O2_84

-2 3
O              0.676190          0.000000          0.000000
O             -0.676190          0.000000          0.000000
O              4.803042          0.000000          0.000000
O              3.450662          0.000000          0.000000

