%NProcShared=4
%Mem=4GB
%OldChk=O2_O2_155.chk
%Chk=O2_O2_156.chk

#p CCSD(T)/cc-pVTZ Guess=Read SCF=XQC 

O2_O2_156

-2 1
O              0.676190          0.000000          0.000000
O             -0.676190          0.000000          0.000000
O              5.822460          0.000000          0.000000
O              4.470080          0.000000          0.000000

