%NProcShared=4
%Mem=4GB
%OldChk=O2_O2_206.chk
%Chk=O2_O2_207.chk

#p CCSD(T)/cc-pVTZ Guess=Read SCF=XQC 

O2_O2_207

-2 1
O              0.676190          0.000000          0.000000
O             -0.676190          0.000000          0.000000
O              6.544547          0.000000          0.000000
O              5.192167          0.000000          0.000000

