%NProcShared=4
%Mem=4GB
%OldChk=O2_O2_25.chk
%Chk=O2_O2_26.chk

#p CCSD(T)/cc-pVTZ Guess=Read SCF=XQC 

O2_O2_26

-2 1
O              0.676190          0.000000          0.000000
O             -0.676190          0.000000          0.000000
O              3.981844          0.000000          0.000000
O              2.629464          0.000000          0.000000

