%NProcShared=4
%Mem=4GB
%OldChk=O2_O2_162.chk
%Chk=O2_O2_163.chk

#p CCSD(T)/cc-pVTZ Guess=Read SCF=XQC 

O2_O2_163

-2 1
O              0.676190          0.000000          0.000000
O             -0.676190          0.000000          0.000000
O              5.921570          0.000000          0.000000
O              4.569190          0.000000          0.000000

