%NProcShared=4
%Mem=4GB
%OldChk=O2_O2_248.chk
%Chk=O2_O2_249.chk

#p CCSD(T)/cc-pVTZ Guess=Read SCF=XQC 

O2_O2_249

-2 1
O              0.676190          0.000000          0.000000
O             -0.676190          0.000000          0.000000
O              7.139208          0.000000          0.000000
O              5.786828          0.000000          0.000000

