%NProcShared=4
%Mem=4GB
%OldChk=O2_O2_274.chk
%Chk=O2_O2_275.chk

#p CCSD(T)/cc-pVTZ Guess=Read SCF=XQC 

O2_O2_275

-2 1
O              0.676190          0.000000          0.000000
O             -0.676190          0.000000          0.000000
O              7.507331          0.000000          0.000000
O              6.154951          0.000000          0.000000

