%NProcShared=4
%Mem=4GB
%OldChk=O2_O2_69.chk
%Chk=O2_O2_70.chk

#p CCSD(T)/cc-pVTZ Guess=Read SCF=XQC 

O2_O2_70

-2 1
O              0.676190          0.000000          0.000000
O             -0.676190          0.000000          0.000000
O              4.604822          0.000000          0.000000
O              3.252442          0.000000          0.000000

