%NProcShared=4
%Mem=4GB
%OldChk=O2_O2_187.chk
%Chk=O2_O2_188.chk

#p CCSD(T)/cc-pVTZ Guess=Read SCF=XQC 

O2_O2_188

-2 1
O              0.676190          0.000000          0.000000
O             -0.676190          0.000000          0.000000
O              6.275534          0.000000          0.000000
O              4.923154          0.000000          0.000000

