%NProcShared=4
%Mem=4GB
%OldChk=O2_O2_111.chk
%Chk=O2_O2_112.chk

#p CCSD(T)/cc-pVTZ Guess=Read SCF=XQC 

O2_O2_112

-2 1
O              0.676190          0.000000          0.000000
O             -0.676190          0.000000          0.000000
O              5.199482          0.000000          0.000000
O              3.847102          0.000000          0.000000

