%NProcShared=4
%Mem=4GB
%OldChk=O2_O2_298.chk
%Chk=O2_O2_299.chk

#p CCSD(T)/cc-pVTZ Guess=Read SCF=XQC 

O2_O2_299

-2 1
O              0.676190          0.000000          0.000000
O             -0.676190          0.000000          0.000000
O              7.847137          0.000000          0.000000
O              6.494757          0.000000          0.000000

