%NProcShared=4
%Mem=4GB
%OldChk=O2_O2_175.chk
%Chk=O2_O2_176.chk

#p CCSD(T)/cc-pVTZ Guess=Read SCF=XQC 

O2_O2_176

-2 1
O              0.676190          0.000000          0.000000
O             -0.676190          0.000000          0.000000
O              6.105631          0.000000          0.000000
O              4.753251          0.000000          0.000000

