%NProcShared=4
%Mem=4GB
%OldChk=O2_O2_41.chk
%Chk=O2_O2_42.chk

#p CCSD(T)/cc-pVTZ Guess=Read SCF=XQC 

O2_O2_42

-2 1
O              0.676190          0.000000          0.000000
O             -0.676190          0.000000          0.000000
O              4.208381          0.000000          0.000000
O              2.856001          0.000000          0.000000

