%NProcShared=4
%Mem=4GB
%OldChk=O2_O2_279.chk
%Chk=O2_O2_280.chk

#p CCSD(T)/cc-pVTZ Guess=Read SCF=XQC 

O2_O2_280

-2 1
O              0.676190          0.000000          0.000000
O             -0.676190          0.000000          0.000000
O              7.578124          0.000000          0.000000
O              6.225744          0.000000          0.000000

