%NProcShared=4
%Mem=4GB
%OldChk=O2_O2_225.chk
%Chk=O2_O2_226.chk

#p CCSD(T)/cc-pVTZ Guess=Read SCF=XQC 

O2_O2_226

-2 1
O              0.676190          0.000000          0.000000
O             -0.676190          0.000000          0.000000
O              6.813561          0.000000          0.000000
O              5.461181          0.000000          0.000000

