%NProcShared=4
%Mem=4GB
%OldChk=O2_O2_51.chk
%Chk=O2_O2_52.chk

#p CCSD(T)/cc-pVTZ Guess=Read SCF=XQC 

O2_O2_52

-2 1
O              0.676190          0.000000          0.000000
O             -0.676190          0.000000          0.000000
O              4.349967          0.000000          0.000000
O              2.997587          0.000000          0.000000

