%NProcShared=4
%Mem=4GB
%OldChk=O2_O2_116.chk
%Chk=O2_O2_117.chk

#p CCSD(T)/cc-pVTZ Guess=Read SCF=XQC 

O2_O2_117

-2 1
O              0.676190          0.000000          0.000000
O             -0.676190          0.000000          0.000000
O              5.270275          0.000000          0.000000
O              3.917895          0.000000          0.000000

