%NProcShared=4
%Mem=4GB
%OldChk=O2_O2_89.chk
%Chk=O2_O2_90.chk

#p CCSD(T)/cc-pVTZ Guess=Read SCF=XQC 

O2_O2_90

-2 1
O              0.676190          0.000000          0.000000
O             -0.676190          0.000000          0.000000
O              4.887993          0.000000          0.000000
O              3.535613          0.000000          0.000000

