%NProcShared=4
%Mem=4GB
%OldChk=O2_O2_52.chk
%Chk=O2_O2_53.chk

#p CCSD(T)/cc-pVTZ Guess=Read SCF=XQC 

O2_O2_53

-2 1
O              0.676190          0.000000          0.000000
O             -0.676190          0.000000          0.000000
O              4.364126          0.000000          0.000000
O              3.011746          0.000000          0.000000

