%NProcShared=4
%Mem=4GB
%OldChk=O2_O2_21.chk
%Chk=O2_O2_22.chk

#p CCSD(T)/cc-pVTZ Guess=Read SCF=XQC 

O2_O2_22

-2 1
O              0.676190          0.000000          0.000000
O             -0.676190          0.000000          0.000000
O              3.925210          0.000000          0.000000
O              2.572830          0.000000          0.000000

