%NProcShared=4
%Mem=4GB
%OldChk=O2_O2_106.chk
%Chk=O2_O2_107.chk

#p CCSD(T)/cc-pVTZ Guess=Read SCF=XQC 

O2_O2_107

-2 1
O              0.676190          0.000000          0.000000
O             -0.676190          0.000000          0.000000
O              5.128689          0.000000          0.000000
O              3.776309          0.000000          0.000000

