%NProcShared=4
%Mem=4GB
%OldChk=O2_O2_138.chk
%Chk=O2_O2_139.chk

#p CCSD(T)/cc-pVTZ Guess=Read SCF=XQC 

O2_O2_139

-2 1
O              0.676190          0.000000          0.000000
O             -0.676190          0.000000          0.000000
O              5.581764          0.000000          0.000000
O              4.229384          0.000000          0.000000

