%NProcShared=4
%Mem=4GB
%OldChk=O2_O2_234.chk
%Chk=O2_O2_235.chk

#p CCSD(T)/cc-pVTZ Guess=Read SCF=XQC 

O2_O2_235

-2 1
O              0.676190          0.000000          0.000000
O             -0.676190          0.000000          0.000000
O              6.940988          0.000000          0.000000
O              5.588608          0.000000          0.000000

