%NProcShared=4
%Mem=4GB
%OldChk=O2_O2_167.chk
%Chk=O2_O2_168.chk

#p CCSD(T)/cc-pVTZ Guess=Read SCF=XQC 

O2_O2_168

-2 1
O              0.676190          0.000000          0.000000
O             -0.676190          0.000000          0.000000
O              5.992363          0.000000          0.000000
O              4.639983          0.000000          0.000000

