%NProcShared=4
%Mem=4GB
%OldChk=O2_O2_212.chk
%Chk=O2_O2_213.chk

#p CCSD(T)/cc-pVTZ Guess=Read SCF=XQC 

O2_O2_213

-2 1
O              0.676190          0.000000          0.000000
O             -0.676190          0.000000          0.000000
O              6.629499          0.000000          0.000000
O              5.277119          0.000000          0.000000

