%NProcShared=4
%Mem=4GB
%OldChk=O2_O2_217.chk
%Chk=O2_O2_218.chk

#p CCSD(T)/cc-pVTZ Guess=Read SCF=XQC 

O2_O2_218

-2 1
O              0.676190          0.000000          0.000000
O             -0.676190          0.000000          0.000000
O              6.700292          0.000000          0.000000
O              5.347912          0.000000          0.000000

