%NProcShared=4
%Mem=4GB
%OldChk=O2_O2_70.chk
%Chk=O2_O2_71.chk

#p CCSD(T)/cc-pVTZ Guess=Read SCF=XQC 

O2_O2_71

-2 1
O              0.676190          0.000000          0.000000
O             -0.676190          0.000000          0.000000
O              4.618980          0.000000          0.000000
O              3.266600          0.000000          0.000000

