%NProcShared=4
%Mem=4GB
%OldChk=O2_O2_156.chk
%Chk=O2_O2_157.chk

#p CCSD(T)/cc-pVTZ Guess=Read SCF=XQC 

O2_O2_157

-2 1
O              0.676190          0.000000          0.000000
O             -0.676190          0.000000          0.000000
O              5.836618          0.000000          0.000000
O              4.484238          0.000000          0.000000

