%NProcShared=4
%Mem=4GB
%OldChk=O2_O2_207.chk
%Chk=O2_O2_208.chk

#p CCSD(T)/cc-pVTZ Guess=Read SCF=XQC 

O2_O2_208

-2 1
O              0.676190          0.000000          0.000000
O             -0.676190          0.000000          0.000000
O              6.558706          0.000000          0.000000
O              5.206326          0.000000          0.000000

