%NProcShared=4
%Mem=4GB
%OldChk=O2_O2_66.chk
%Chk=O2_O2_67.chk

#p CCSD(T)/cc-pVTZ Guess=Read SCF=XQC 

O2_O2_67

-2 1
O              0.676190          0.000000          0.000000
O             -0.676190          0.000000          0.000000
O              4.562346          0.000000          0.000000
O              3.209966          0.000000          0.000000

