%NProcShared=4
%Mem=4GB
%OldChk=O2_O2_113.chk
%Chk=O2_O2_114.chk

#p CCSD(T)/cc-pVTZ Guess=Read SCF=XQC 

O2_O2_114

-2 1
O              0.676190          0.000000          0.000000
O             -0.676190          0.000000          0.000000
O              5.227799          0.000000          0.000000
O              3.875419          0.000000          0.000000

