%NProcShared=4
%Mem=4GB
%OldChk=O2_O2_199.chk
%Chk=O2_O2_200.chk

#p CCSD(T)/cc-pVTZ Guess=Read SCF=XQC 

O2_O2_200

-2 1
O              0.676190          0.000000          0.000000
O             -0.676190          0.000000          0.000000
O              6.445437          0.000000          0.000000
O              5.093057          0.000000          0.000000

