%NProcShared=4
%Mem=4GB
%OldChk=O2_O2_160.chk
%Chk=O2_O2_161.chk

#p CCSD(T)/cc-pVTZ Guess=Read SCF=XQC 

O2_O2_161

-2 1
O              0.676190          0.000000          0.000000
O             -0.676190          0.000000          0.000000
O              5.893253          0.000000          0.000000
O              4.540873          0.000000          0.000000

