%NProcShared=4
%Mem=4GB
%OldChk=O2_O2_185.chk
%Chk=O2_O2_186.chk

#p CCSD(T)/cc-pVTZ Guess=Read SCF=XQC 

O2_O2_186

-2 1
O              0.676190          0.000000          0.000000
O             -0.676190          0.000000          0.000000
O              6.247217          0.000000          0.000000
O              4.894837          0.000000          0.000000

