%NProcShared=4
%Mem=4GB
%OldChk=O2_O2_152.chk
%Chk=O2_O2_153.chk

#p CCSD(T)/cc-pVTZ Guess=Read SCF=XQC 

O2_O2_153

-2 1
O              0.676190          0.000000          0.000000
O             -0.676190          0.000000          0.000000
O              5.779984          0.000000          0.000000
O              4.427604          0.000000          0.000000

